File C:\Users\lyoshi\Documents\MATLAB\FEM\ArcLength\SAP2000\arch.$2k was saved on m/d/yy at h:mm:ss
 
TABLE:  "ACTIVE DEGREES OF FREEDOM"
   UX=Yes   UY=Yes   UZ=Yes   RX=Yes   RY=Yes   RZ=Yes
 
TABLE:  "ANALYSIS OPTIONS"
   Solver=Advanced   SolverProc=Auto   Force32Bit=No   StiffCase=None   GeomMod=None
 
TABLE:  "AUTO WAVE 3 - WAVE CHARACTERISTICS - GENERAL"
   WaveChar=Default   WaveType="From Theory"   KinFactor=1   SWaterDepth=45000   WaveHeight=18000   WavePeriod=12   WaveTheory=Linear
 
TABLE:  "CASE - MODAL 1 - GENERAL"
   Case=MODAL   ModeType=Eigen   MaxNumModes=12   MinNumModes=1   EigenShift=0   EigenCutoff=0   EigenTol=1E-09   AutoShift=Yes
 
TABLE:  "CASE - STATIC 1 - LOAD ASSIGNMENTS"
   Case=DEAD   LoadType="Load pattern"   LoadName=DEAD   LoadSF=1
   Case=NLSTAT1   LoadType="Load pattern"   LoadName=DEAD   LoadSF=1
 
TABLE:  "CASE - STATIC 2 - NONLINEAR LOAD APPLICATION"
   Case=NLSTAT1   LoadApp="Displ Ctrl"   DisplType=Conjugate   TargetDispl=2000   MonitorDOF=U3   MonitorJt=10
 
TABLE:  "CASE - STATIC 4 - NONLINEAR PARAMETERS"
   Case=NLSTAT1   GeoNonLin="Large Displ"   ResultsSave="Multiple States"   MinNumState=100   MaxNumState=200   PosIncOnly=Yes   MaxTotal=200   MaxNull=50   UseEvStep=Yes   EvLumpTol=0.01   MaxIterCS=10   MaxIterNR=40   ItConvTol=0.0001 _
        UseLineSrch=Yes   LSPerIter=20   LSTol=0.1   LSStepFact=1.618   FrameTC=Yes   FrameHinge=Yes   CableTC=Yes   LinkTC=Yes   LinkOther=Yes   TFMaxIter=10   TFTol=0.01   TFAccelFact=1   TFNoStop=No
 
TABLE:  "CONNECTIVITY - FRAME"
   Frame=1   JointI=1   JointJ=2   IsCurved=No   GUID=433f1dd5-e4ed-4b48-9a01-d84e57b51f0c
   Frame=2   JointI=2   JointJ=4   IsCurved=No   GUID=9c23e196-825d-49e4-b596-8382be2d479e
   Frame=3   JointI=4   JointJ=6   IsCurved=No   GUID=0e7dbcf2-5619-4d8d-a17a-bd96b0283dcd
   Frame=4   JointI=6   JointJ=8   IsCurved=No   GUID=17753eaa-a4cf-40f1-9151-a48daf6f1887
   Frame=5   JointI=8   JointJ=10   IsCurved=No   GUID=445e4573-6fdc-436a-b0c9-f73bbc58e499
   Frame=6   JointI=10   JointJ=9   IsCurved=No   GUID=969ee2e2-e32e-46c3-b825-64ed498f8647
   Frame=7   JointI=9   JointJ=7   IsCurved=No   GUID=ef1917d2-212c-465c-b44d-caaa3b088a7a
   Frame=8   JointI=7   JointJ=5   IsCurved=No   GUID=c03b6458-a9f3-4aab-afcc-cbb7555645af
   Frame=9   JointI=5   JointJ=3   IsCurved=No   GUID=7dc07247-29ce-4d47-80d2-ac8db07a1c7c
   Frame=10   JointI=3   JointJ=11   IsCurved=No   GUID=14bc5032-8c81-4f8b-b58c-7ca0ee946e2a
 
TABLE:  "COORDINATE SYSTEMS"
   Name=GLOBAL   Type=Cartesian   X=0   Y=0   Z=0   AboutZ=0   AboutY=0   AboutX=0
 
TABLE:  "DATABASE DOCUMENTATION"
 
TABLE:  "DATABASE FORMAT TYPES"
   UnitsCurr=Yes   OverrideE=No
 
TABLE:  "FRAME AUTO MESH ASSIGNMENTS"
   Frame=1   AutoMesh=Yes   AtJoints=Yes   AtFrames=No   NumSegments=0   MaxLength=0   MaxDegrees=0
   Frame=2   AutoMesh=Yes   AtJoints=Yes   AtFrames=No   NumSegments=0   MaxLength=0   MaxDegrees=0
   Frame=3   AutoMesh=Yes   AtJoints=Yes   AtFrames=No   NumSegments=0   MaxLength=0   MaxDegrees=0
   Frame=4   AutoMesh=Yes   AtJoints=Yes   AtFrames=No   NumSegments=0   MaxLength=0   MaxDegrees=0
   Frame=5   AutoMesh=Yes   AtJoints=Yes   AtFrames=No   NumSegments=0   MaxLength=0   MaxDegrees=0
   Frame=6   AutoMesh=Yes   AtJoints=Yes   AtFrames=No   NumSegments=0   MaxLength=0   MaxDegrees=0
   Frame=7   AutoMesh=Yes   AtJoints=Yes   AtFrames=No   NumSegments=0   MaxLength=0   MaxDegrees=0
   Frame=8   AutoMesh=Yes   AtJoints=Yes   AtFrames=No   NumSegments=0   MaxLength=0   MaxDegrees=0
   Frame=9   AutoMesh=Yes   AtJoints=Yes   AtFrames=No   NumSegments=0   MaxLength=0   MaxDegrees=0
   Frame=10   AutoMesh=Yes   AtJoints=Yes   AtFrames=No   NumSegments=0   MaxLength=0   MaxDegrees=0
 
TABLE:  "FRAME DESIGN PROCEDURES"
   Frame=1   DesignProc="From Material"
   Frame=2   DesignProc="From Material"
   Frame=3   DesignProc="From Material"
   Frame=4   DesignProc="From Material"
   Frame=5   DesignProc="From Material"
   Frame=6   DesignProc="From Material"
   Frame=7   DesignProc="From Material"
   Frame=8   DesignProc="From Material"
   Frame=9   DesignProc="From Material"
   Frame=10   DesignProc="From Material"
 
TABLE:  "FRAME LOAD TRANSFER OPTIONS"
   Frame=1   Transfer=Yes
   Frame=2   Transfer=Yes
   Frame=3   Transfer=Yes
   Frame=4   Transfer=Yes
   Frame=5   Transfer=Yes
   Frame=6   Transfer=Yes
   Frame=7   Transfer=Yes
   Frame=8   Transfer=Yes
   Frame=9   Transfer=Yes
   Frame=10   Transfer=Yes
 
TABLE:  "FRAME OUTPUT STATION ASSIGNMENTS"
   Frame=1   StationType=MinNumSta   MinNumSta=3   AddAtElmInt=Yes   AddAtPtLoad=Yes
   Frame=2   StationType=MinNumSta   MinNumSta=3   AddAtElmInt=Yes   AddAtPtLoad=Yes
   Frame=3   StationType=MinNumSta   MinNumSta=3   AddAtElmInt=Yes   AddAtPtLoad=Yes
   Frame=4   StationType=MinNumSta   MinNumSta=3   AddAtElmInt=Yes   AddAtPtLoad=Yes
   Frame=5   StationType=MinNumSta   MinNumSta=3   AddAtElmInt=Yes   AddAtPtLoad=Yes
   Frame=6   StationType=MinNumSta   MinNumSta=3   AddAtElmInt=Yes   AddAtPtLoad=Yes
   Frame=7   StationType=MinNumSta   MinNumSta=3   AddAtElmInt=Yes   AddAtPtLoad=Yes
   Frame=8   StationType=MinNumSta   MinNumSta=3   AddAtElmInt=Yes   AddAtPtLoad=Yes
   Frame=9   StationType=MinNumSta   MinNumSta=3   AddAtElmInt=Yes   AddAtPtLoad=Yes
   Frame=10   StationType=MinNumSta   MinNumSta=3   AddAtElmInt=Yes   AddAtPtLoad=Yes
 
TABLE:  "FRAME SECTION ASSIGNMENTS"
   Frame=1   AutoSelect=N.A.   AnalSect=Circular   MatProp=Default
   Frame=2   AutoSelect=N.A.   AnalSect=Circular   MatProp=Default
   Frame=3   AutoSelect=N.A.   AnalSect=Circular   MatProp=Default
   Frame=4   AutoSelect=N.A.   AnalSect=Circular   MatProp=Default
   Frame=5   AutoSelect=N.A.   AnalSect=Circular   MatProp=Default
   Frame=6   AutoSelect=N.A.   AnalSect=Circular   MatProp=Default
   Frame=7   AutoSelect=N.A.   AnalSect=Circular   MatProp=Default
   Frame=8   AutoSelect=N.A.   AnalSect=Circular   MatProp=Default
   Frame=9   AutoSelect=N.A.   AnalSect=Circular   MatProp=Default
   Frame=10   AutoSelect=N.A.   AnalSect=Circular   MatProp=Default
 
TABLE:  "FRAME SECTION PROPERTIES 01 - GENERAL"
   SectionName=Circular   Material=Q235   Shape=Circle   t3=40   Area=1256.63706143592   TorsConst=251327.412287183   I33=125663.706143592   I22=125663.706143592   I23=0   AS2=1130.97335529233   AS3=1130.97335529233   S33=6283.18530717959 _
        S22=6283.18530717959   Z33=10666.6666666667   Z22=10666.6666666667   R33=10   R22=10   Color=Cyan   FromFile=No   AMod=1   A2Mod=1   A3Mod=1   JMod=1   I2Mod=1   I3Mod=1   MMod=1   WMod=1   Notes="Added 2016/12/1 0:12:08"
 
TABLE:  "FRAME SECTION PROPERTIES 13 - TIME DEPENDENT"
   SectionName=Circular   TypeSize=Auto   AutoSFSize=1
 
TABLE:  "FUNCTION - PLOT FUNCTIONS"
   PlotFunc="Input Energy"   Type=Energy   Component=Input   Mode=All
   PlotFunc=Joint10   Type=Joint   ObjectLabel=10   Component=RelDispU1   Mode=All
   PlotFunc=DEAD   Type=LoadFunc   Component=DEAD   Mode=All
 
TABLE:  "FUNCTION - POWER SPECTRAL DENSITY - USER"
   Name=UNIFPSD   Frequency=0   Value=1
   Name=UNIFPSD   Frequency=1   Value=1
 
TABLE:  "FUNCTION - RESPONSE SPECTRUM - USER"
   Name=UNIFRS   Period=0   Accel=1   FuncDamp=0.05
   Name=UNIFRS   Period=1   Accel=1
 
TABLE:  "FUNCTION - STEADY STATE - USER"
   Name=UNIFSS   Frequency=0   Value=1
   Name=UNIFSS   Frequency=1   Value=1
 
TABLE:  "FUNCTION - TIME HISTORY - USER"
   Name=RAMPTH   Time=0   Value=0
   Name=RAMPTH   Time=1   Value=1
   Name=RAMPTH   Time=4   Value=1
   Name=UNIFTH   Time=0   Value=1
   Name=UNIFTH   Time=1   Value=1
 
TABLE:  "GROUPS 1 - DEFINITIONS"
   GroupName=ALL   Selection=Yes   SectionCut=Yes   Steel=Yes   Concrete=Yes   Aluminum=Yes   ColdFormed=Yes   Stage=Yes   Bridge=Yes   AutoSeismic=No   AutoWind=No   SelDesSteel=No   SelDesAlum=No   SelDesCold=No   MassWeight=Yes   Color=Red
 
TABLE:  "JOINT COORDINATES"
   Joint=1   CoordSys=GLOBAL   CoordType=Cartesian   XorR=-0.00176024436950684   Y=0   Z=0   SpecialJt=Yes   GUID=3a7405d3-f6dd-4266-a11f-5d8c9ab78b45
   Joint=2   CoordSys=GLOBAL   CoordType=Cartesian   XorR=1000.29044008255   Y=0   Z=308.904344479561   SpecialJt=Yes   GUID=3a7405d3-f6dd-4266-a11f-5d8c9ab78b45
   Joint=3   CoordSys=GLOBAL   CoordType=Cartesian   XorR=8999.99823975563   Y=0   Z=309.017   SpecialJt=Yes   GUID=3a7405d3-f6dd-4266-a11f-5d8c9ab78b45
   Joint=4   CoordSys=GLOBAL   CoordType=Cartesian   XorR=1999.99823975563   Y=0   Z=587.7853   SpecialJt=Yes   GUID=3a7405d3-f6dd-4266-a11f-5d8c9ab78b45
   Joint=5   CoordSys=GLOBAL   CoordType=Cartesian   XorR=7999.99823975563   Y=0   Z=587.7853   SpecialJt=Yes   GUID=3a7405d3-f6dd-4266-a11f-5d8c9ab78b45
   Joint=6   CoordSys=GLOBAL   CoordType=Cartesian   XorR=2999.99823975563   Y=0   Z=809.017   SpecialJt=Yes   GUID=3a7405d3-f6dd-4266-a11f-5d8c9ab78b45
   Joint=7   CoordSys=GLOBAL   CoordType=Cartesian   XorR=6999.99823975563   Y=0   Z=809.017   SpecialJt=Yes   GUID=3a7405d3-f6dd-4266-a11f-5d8c9ab78b45
   Joint=8   CoordSys=GLOBAL   CoordType=Cartesian   XorR=3999.99823975563   Y=0   Z=951.0565   SpecialJt=Yes   GUID=3a7405d3-f6dd-4266-a11f-5d8c9ab78b45
   Joint=9   CoordSys=GLOBAL   CoordType=Cartesian   XorR=5999.99823975563   Y=0   Z=951.0565   SpecialJt=Yes   GUID=3a7405d3-f6dd-4266-a11f-5d8c9ab78b45
   Joint=10   CoordSys=GLOBAL   CoordType=Cartesian   XorR=4999.99823975563   Y=0   Z=1000   SpecialJt=Yes   GUID=3a7405d3-f6dd-4266-a11f-5d8c9ab78b45
   Joint=11   CoordSys=GLOBAL   CoordType=Cartesian   XorR=9999.99823975563   Y=0   Z=0   SpecialJt=Yes   GUID=3a7405d3-f6dd-4266-a11f-5d8c9ab78b45
 
TABLE:  "JOINT LOADS - FORCE"
   Joint=10   LoadPat=DEAD   CoordSys=GLOBAL   F1=0   F2=0   F3=-1   M1=0   M2=0   M3=0   GUID=eca2cc8b-3126-44b4-ae9d-03384498f736
 
TABLE:  "JOINT PATTERN DEFINITIONS"
   Pattern=Default
 
TABLE:  "JOINT RESTRAINT ASSIGNMENTS"
   Joint=1   U1=Yes   U2=Yes   U3=Yes   R1=No   R2=No   R3=No
   Joint=11   U1=Yes   U2=Yes   U3=Yes   R1=No   R2=No   R3=No
 
TABLE:  "LOAD CASE DEFINITIONS"
   Case=DEAD   Type=LinStatic   InitialCond=Zero   DesTypeOpt="Prog Det"   DesignType=Dead   DesActOpt="Prog Det"   DesignAct=Non-Composite   AutoType=None   RunCase=No
   Case=MODAL   Type=LinModal   InitialCond=Zero   DesTypeOpt="Prog Det"   DesignType=Other   DesActOpt="Prog Det"   DesignAct=Other   AutoType=None   RunCase=No
   Case=NLSTAT1   Type=NonStatic   InitialCond=Zero   DesTypeOpt="Prog Det"   DesignType=Dead   DesActOpt="Prog Det"   DesignAct=Non-Composite   AutoType=None   RunCase=Yes
 
TABLE:  "LOAD PATTERN DEFINITIONS"
   LoadPat=DEAD   DesignType=Dead   SelfWtMult=0   GUID=bfeb1813-147c-4bfd-a02e-4a665b788ae6
 
TABLE:  "MASS SOURCE"
   MassSource=MSSSRC1   Elements=Yes   Masses=Yes   Loads=No   IsDefault=Yes
 
TABLE:  "MATERIAL PROPERTIES 01 - GENERAL"
   Material=C30   Type=Concrete   SymType=Isotropic   TempDepend=No   Color=Red   Notes="GB GB50010 C30 2016/12/1 0:09:15"
   Material=Q235   Type=Steel   SymType=Isotropic   TempDepend=No   Color=Green   Notes="China GB Q235 added 2016/12/1 0:14:22"
   Material=Q345   Type=Steel   SymType=Isotropic   TempDepend=No   Color=Cyan   Notes="GB Q345 2016/12/1 0:09:15"
 
TABLE:  "MATERIAL PROPERTIES 02 - BASIC MECHANICAL PROPERTIES"
   Material=C30   UnitWeight=2.5E-05   UnitMass=2.55E-09   E1=30000   G12=12500   U12=0.2   A1=1E-05
   Material=Q235   UnitWeight=7.7E-05   UnitMass=7.85E-09   E1=210000   G12=80769.2307692308   U12=0.3   A1=1.17E-05
   Material=Q345   UnitWeight=7.7E-05   UnitMass=7.85E-09   E1=200000   G12=76923.0769230769   U12=0.3   A1=1.17E-05
 
TABLE:  "MATERIAL PROPERTIES 03A - STEEL DATA"
   Material=Q235   Fy=235   Fu=390   EffFy=260   EffFu=430   SSCurveOpt=Simple   SSHysType=Kinematic   SHard=0.015   SMax=0.11   SRup=0.17   FinalSlope=-0.1
   Material=Q345   Fy=345   Fu=510   EffFy=380   EffFu=560   SSCurveOpt=Simple   SSHysType=Kinematic   SHard=0.015   SMax=0.11   SRup=0.17   FinalSlope=-0.1
 
TABLE:  "MATERIAL PROPERTIES 03B - CONCRETE DATA"
   Material=C30   Fc=20.1   eFc=20.1   LtWtConc=No   SSCurveOpt=Mander   SSHysType=Takeda   SFc=0.002   SCap=0.005   FinalSlope=-0.1   FAngle=0   DAngle=0
 
TABLE:  "MATERIAL PROPERTIES 06 - DAMPING PARAMETERS"
   Material=C30   ModalRatio=0   VisMass=0   VisStiff=0   HysMass=0   HysStiff=0
   Material=Q235   ModalRatio=0   VisMass=0   VisStiff=0   HysMass=0   HysStiff=0
   Material=Q345   ModalRatio=0   VisMass=0   VisStiff=0   HysMass=0   HysStiff=0
 
TABLE:  "OPTIONS - COLORS - DISPLAY"
   DeviceType=Screen   Points=Blue   LinesFrame=Blue   LinesFrmDL=Blue   LinesCable=Green   LinesTendon=Green   SpringLinks=Green   Restraints=Green   Releases=Green   Axes=Cyan   Text=Black   ShadowLines=Gray8Dark   GuideLines=Gray8Dark _
        Highlight=Red   Selection=10504778   AreaFillBot=Red   AreaFillTop=16744703   AreaFillSd=Red   AreaEdge=DarkRed   SolidF1=Red   SolidF2=Blue   SolidF3=Green   SolidF4=Yellow   SolidF5=White   SolidF6=Cyan   SolidEdge=DarkRed _
        Floor=Gray4   Background=White   BGLowLeft=White   BGLowRight=White   BGUpRight=White   Darkness=0.5
   DeviceType=Printer   Points=Gray8Dark   LinesFrame=Black   LinesFrmDL=Gray4   LinesCable=Black   LinesTendon=Black   SpringLinks=Gray8Dark   Restraints=Gray8Dark   Releases=Gray4   Axes=Black   Text=Black   ShadowLines=Gray4 _
        GuideLines=Gray4   Highlight=Black   Selection=Black   AreaFillBot=Gray4   AreaFillTop=Gray8Dark   AreaFillSd=Gray4   AreaEdge=Black   SolidF1=Gray1Light   SolidF2=Gray2   SolidF3=Gray3   SolidF4=Gray4   SolidF5=Gray5 _
        SolidF6=Gray6   SolidEdge=Black   Floor=Gray4   Background=White   BGLowLeft=White   BGLowRight=White   BGUpRight=White   Darkness=0.5
   DeviceType="Color Printer"   Points=Blue   LinesFrame=Blue   LinesFrmDL=Blue   LinesCable=Green   LinesTendon=Green   SpringLinks=Green   Restraints=Green   Releases=Green   Axes=Cyan   Text=Black   ShadowLines=Gray8Dark _
        GuideLines=Gray8Dark   Highlight=Red   Selection=10504778   AreaFillBot=Red   AreaFillTop=16744703   AreaFillSd=Red   AreaEdge=DarkRed   SolidF1=Red   SolidF2=Blue   SolidF3=Green   SolidF4=Yellow   SolidF5=White   SolidF6=Cyan _
        SolidEdge=DarkRed   Floor=Gray4   Background=White   BGLowLeft=White   BGLowRight=White   BGUpRight=White   Darkness=0.5
 
TABLE:  "OPTIONS - COLORS - OUTPUT"
   DeviceType=Screen   Contour1=13107400   Contour2=6553828   Contour3=Red   Contour4=16639   Contour5=Orange   Contour6=43775   Contour7=54527   Contour8=Yellow   Contour9=65408   Contour10=Green   Contour11=8453888   Contour12=Cyan _
        Contour13=16755200   Contour14=16733440   Contour15=Blue   Transpare=0.5   Ratio1=Cyan   Ratio2=Green   Ratio3=Yellow   Ratio4=Orange   Ratio5=Red   RatioNotD=Gray4   RatioNotC=Red   RatioVal1=0.5   RatioVal2=0.7   RatioVal3=0.9 _
        RatioVal4=1   DFillPos=Blue   DFillNeg=Red   DFillRPos=Green   DFillRNeg=Green
   DeviceType=Printer   Contour1=Black   Contour2=3158064   Contour3=4210752   Contour4=5263440   Contour5=6316128   Contour6=7368816   Contour7=Gray8Dark   Contour8=Gray7   Contour9=Gray6   Contour10=Gray5   Contour11=Gray4 _
        Contour12=Gray3   Contour13=Gray2   Contour14=Gray1Light   Contour15=White   Transpare=0   Ratio1=Gray2   Ratio2=Gray4   Ratio3=Gray8Dark   Ratio4=4210752   Ratio5=Black   RatioNotD=Gray4   RatioNotC=Black   RatioVal1=0.5 _
        RatioVal2=0.7   RatioVal3=0.9   RatioVal4=1   DFillPos=Gray8Dark   DFillNeg=Gray8Dark   DFillRPos=4210752   DFillRNeg=4210752
   DeviceType="Color Printer"   Contour1=13107400   Contour2=6553828   Contour3=Red   Contour4=16639   Contour5=Orange   Contour6=43775   Contour7=54527   Contour8=Yellow   Contour9=65408   Contour10=Green   Contour11=8453888 _
        Contour12=Cyan   Contour13=16755200   Contour14=16733440   Contour15=Blue   Transpare=0   Ratio1=Cyan   Ratio2=Green   Ratio3=Yellow   Ratio4=Orange   Ratio5=Red   RatioNotD=Gray4   RatioNotC=Red   RatioVal1=0.5   RatioVal2=0.7 _
        RatioVal3=0.9   RatioVal4=1   DFillPos=Blue   DFillNeg=Red   DFillRPos=Green   DFillRNeg=Green
 
TABLE:  "PREFERENCES - ALUMINUM DESIGN - AA-ASD 2000"
   THDesign=Envelopes   FrameType="Moment Frame"   SRatioLimit=1   MaxIter=1   LatFact=1.33333333333333   UseLatFact=No   Bridge=No
 
TABLE:  "PREFERENCES - COLD FORMED DESIGN - AISI-ASD96"
   THDesign=Envelopes   FrameType="Braced Frame"   SRatioLimit=1   MaxIter=1   OmegaBS=1.67   OmegaBUS=1.67   OmegaBLTB=1.67   OmegaVS=1.67   OmegaVNS=1.5   OmegaT=1.67   OmegaC=1.8
 
TABLE:  "PREFERENCES - CONCRETE DESIGN - ACI 318-14"
   THDesign=Envelopes   NumCurves=24   NumPoints=11   MinEccen=Yes   PatLLF=0.75   UFLimit=0.95   SeisCat=D   Rho=1   Sds=0.5   PhiT=0.9   PhiCTied=0.65   PhiCSpiral=0.75   PhiV=0.75   PhiVSeismic=0.6   PhiVJoint=0.85
 
TABLE:  "PREFERENCES - DIMENSIONAL"
   MergeTol=1   FineGrid=250   Nudge=250   SelectTol=3   SnapTol=12   SLineThick=2   PLineThick=4   MaxFont=8   MinFont=3   AutoZoom=10   ShrinkFact=70   TextFileLen=240
 
TABLE:  "PREFERENCES - STEEL DESIGN - AISC 360-10"
   THDesign=Envelopes   FrameType=SMF   PatLLF=0.75   SRatioLimit=0.95   MaxIter=1   SDC=D   SeisCode=Yes   SeisLoad=Yes   ImpFactor=1   SystemRho=1   SystemSds=0.5   SystemR=8   SystemCd=5.5   Omega0=3   Provision=LRFD _
        AMethod="Direct Analysis"   SOMethod="General 2nd Order"   SRMethod="Tau-b Fixed"   NLCoeff=0.002   PhiB=0.9   PhiC=0.9   PhiTY=0.9   PhiTF=0.75   PhiV=0.9   PhiVRolledI=1   PhiVT=0.9   PlugWeld=Yes   HSSWelding=ERW   HSSReduceT=No _
        CheckDefl=No   DLRat=120   SDLAndLLRat=120   LLRat=360   TotalRat=240   NetRat=240
 
TABLE:  "PROGRAM CONTROL"
   ProgramName=SAP2000   Version=18.2.0   CurrUnits="N, mm, C"   SteelCode="AISC 360-10"   ConcCode="ACI 318-14"   AlumCode="AA-ASD 2000"   ColdCode=AISI-ASD96   RegenHinge=Yes
 
TABLE:  "PROJECT INFORMATION"
   Item="Company Name"
   Item="Client Name"
   Item="Project Name"
   Item="Project Number"
   Item="Model Name"
   Item="Model Description"
   Item="Revision Number"
   Item="Frame Type"
   Item=Engineer
   Item=Checker
   Item=Supervisor
   Item="Issue Code"
   Item="Design Code"
 
TABLE:  "REBAR SIZES"
   RebarID=#2   Area=32.258   Diameter=6.35
   RebarID=#3   Area=70.9675996154547   Diameter=9.525
   RebarID=#4   Area=129.032001922727   Diameter=12.7
   RebarID=#5   Area=199.999601538181   Diameter=15.875
   RebarID=#6   Area=283.870398461819   Diameter=19.05
   RebarID=#7   Area=387.096015381813   Diameter=22.225
   RebarID=#8   Area=509.676413843632   Diameter=25.4
   RebarID=#9   Area=645.16   Diameter=28.6512005329132
   RebarID=#10   Area=819.35318769455   Diameter=32.2579995155334
   RebarID=#11   Area=1006.44956308365   Diameter=35.8139991521835
   RebarID=#14   Area=1451.61   Diameter=43.0021989583969
   RebarID=#18   Area=2580.64   Diameter=57.3277992248535
   RebarID=10M   Area=100.000002655387   Diameter=11.300000667572
   RebarID=15M   Area=200.000005310774   Diameter=15.9999999403954
   RebarID=20M   Area=300.000017579794   Diameter=19.4999997854233
   RebarID=25M   Area=500.000022890568   Diameter=25.2000016093254
   RebarID=30M   Area=700.000008974075   Diameter=29.9000008821487
   RebarID=35M   Area=1000.00004578114   Diameter=35.7000011444092
   RebarID=45M   Area=1500.00010712624   Diameter=43.7000003576279
   RebarID=55M   Area=2500.00007599831   Diameter=56.4000033855438
   RebarID=6d   Area=28.3000004149973   Diameter=6.00000016689301
   RebarID=8d   Area=50.2999995571375   Diameter=7.99999997019768
   RebarID=10d   Area=78.5000013634562   Diameter=9.99999977350235
   RebarID=12d   Area=113.000009249449   Diameter=12.000000333786
   RebarID=14d   Area=154.000010818839   Diameter=14.0000008940697
   RebarID=16d   Area=201.000015431643   Diameter=15.9999999403954
   RebarID=20d   Area=314.000005453825   Diameter=19.9999995470047
   RebarID=25d   Area=491.000008711815   Diameter=25.0000001907349
   RebarID=26d   Area=531.000029001236   Diameter=25.9999997138977
   RebarID=28d   Area=616.000043275356   Diameter=28.0000017881393
   RebarID=N12   Area=113.000009249449   Diameter=12.000000333786
   RebarID=N16   Area=201.000015431643   Diameter=15.9999999403954
   RebarID=N20   Area=314.000005453825   Diameter=19.9999995470047
   RebarID=N24   Area=452.000036997795   Diameter=24.000000667572
   RebarID=N28   Area=616.000043275356   Diameter=28.0000017881393
   RebarID=N32   Area=804.00006172657   Diameter=31.9999998807907
   RebarID=N36   Area=1020.00001747131   Diameter=36.000001001358
 
END TABLE DATA
