File C:\Users\lyoshi\Documents\MATLAB\FEM\1常应变三角形平面单元\Sap2000_homework\HW_1.$2k was saved on 4/1/18 at 14:47:29
 
TABLE:  "ACTIVE DEGREES OF FREEDOM"
   UX=Yes   UY=No   UZ=Yes   RX=No   RY=Yes   RZ=No
 
TABLE:  "ANALYSIS OPTIONS"
   Solver=Advanced   SolverProc=Auto   Force32Bit=No   StiffCase=None   GeomMod=No
 
TABLE:  "AREA SECTION ASSIGNMENTS"
   Area=43   Section=PlaneStress1   MatProp=Default
   Area=44   Section=PlaneStress1   MatProp=Default
   Area=45   Section=PlaneStress1   MatProp=Default
   Area=46   Section=PlaneStress1   MatProp=Default
   Area=47   Section=PlaneStress1   MatProp=Default
   Area=48   Section=PlaneStress1   MatProp=Default
   Area=49   Section=PlaneStress1   MatProp=Default
   Area=50   Section=PlaneStress1   MatProp=Default
 
TABLE:  "AREA SECTION PROPERTIES"
   Section=ASEC1   Material=A992Fy50   MatAngle=0   AreaType=Shell   Type=Shell-Thin   DrillDOF=Yes   Thickness=250   BendThick=250   Color=Green   F11Mod=1   F22Mod=1   F12Mod=1   M11Mod=1   M22Mod=1   M12Mod=1   V13Mod=1   V23Mod=1 _
        MMod=1   WMod=1   Notes="Added 2018/4/1 14:31:06"
   Section=PlaneStress1   Material=Q345   MatAngle=0   AreaType=Plane   Type=Plane-Stress   Thickness=3   InComp=Yes   Color=Green   F11Mod=1   F22Mod=1   F12Mod=1   M11Mod=1   M22Mod=1   M12Mod=1   V13Mod=1   V23Mod=1   MMod=1   WMod=1   Notes="Added 2018/4/1 14:31:29"
 
TABLE:  "AREA SECTION PROPERTY DESIGN PARAMETERS"
   Section=ASEC1   RebarMat=None   RebarOpt=Default
 
TABLE:  "AUTO WAVE 3 - WAVE CHARACTERISTICS - GENERAL"
   WaveChar=Default   WaveType="From Theory"   KinFactor=1   SWaterDepth=45000   WaveHeight=18000   WavePeriod=12   WaveTheory=Linear
 
TABLE:  "BRIDGE DESIGN PREFERENCES - AASHTOLRFD07"
   HingeOpt="Auto: AASHTO/Caltrans Hinge"
 
TABLE:  "CASE - MODAL 1 - GENERAL"
   Case=MODAL   ModeType=Eigen   MaxNumModes=12   MinNumModes=1   EigenShift=0   EigenCutoff=0   EigenTol=.000000001   AutoShift=Yes
 
TABLE:  "CASE - STATIC 1 - LOAD ASSIGNMENTS"
   Case=DEAD   LoadType="Load pattern"   LoadName=DEAD   LoadSF=1
 
TABLE:  "CONNECTIVITY - AREA"
   Area=43   Joint1=54   Joint2=55   Joint3=56   Joint4=57
   Area=44   Joint1=57   Joint2=56   Joint3=58   Joint4=59
   Area=45   Joint1=55   Joint2=60   Joint3=61   Joint4=56
   Area=46   Joint1=56   Joint2=61   Joint3=62   Joint4=58
   Area=47   Joint1=60   Joint2=63   Joint3=64   Joint4=61
   Area=48   Joint1=61   Joint2=64   Joint3=65   Joint4=62
   Area=49   Joint1=63   Joint2=66   Joint3=67   Joint4=64
   Area=50   Joint1=64   Joint2=67   Joint3=68   Joint4=65
 
TABLE:  "COORDINATE SYSTEMS"
   Name=GLOBAL   Type=Cartesian   X=0   Y=0   Z=0   AboutZ=0   AboutY=0   AboutX=0
 
TABLE:  "DATABASE DOCUMENTATION"
 
TABLE:  "DATABASE FORMAT TYPES"
   UnitsCurr=Yes   OverrideE=No
 
TABLE:  "FUNCTION - PLOT FUNCTIONS"
   PlotFunc="Input Energy"   Type=Energy   Component=Input   Mode=All
 
TABLE:  "FUNCTION - POWER SPECTRAL DENSITY - USER"
   Name=UNIFPSD   Frequency=0   Value=1
   Name=UNIFPSD   Frequency=1   Value=1
 
TABLE:  "FUNCTION - RESPONSE SPECTRUM - USER"
   Name=UNIFRS   Period=0   Accel=1   FuncDamp=.05
   Name=UNIFRS   Period=1   Accel=1
 
TABLE:  "FUNCTION - STEADY STATE - USER"
   Name=UNIFSS   Frequency=0   Value=1
   Name=UNIFSS   Frequency=1   Value=1
 
TABLE:  "FUNCTION - TIME HISTORY - USER"
   Name=RAMPTH   Time=0   Value=0
   Name=RAMPTH   Time=1   Value=1
   Name=RAMPTH   Time=4   Value=1
   Name=UNIFTH   Time=0   Value=1
   Name=UNIFTH   Time=1   Value=1
 
TABLE:  "GRID LINES"
   CoordSys=GLOBAL   AxisDir=X   GridID=A   XRYZCoord=0   LineType=Primary   LineColor=Gray8Dark   Visible=Yes   BubbleLoc=End   AllVisible=Yes   BubbleSize=562.5
   CoordSys=GLOBAL   AxisDir=X   GridID=B   XRYZCoord=500   LineType=Primary   LineColor=Gray8Dark   Visible=Yes   BubbleLoc=End
   CoordSys=GLOBAL   AxisDir=X   GridID=C   XRYZCoord=1000   LineType=Primary   LineColor=Gray8Dark   Visible=Yes   BubbleLoc=End
   CoordSys=GLOBAL   AxisDir=X   GridID=D   XRYZCoord=1500   LineType=Primary   LineColor=Gray8Dark   Visible=Yes   BubbleLoc=End
   CoordSys=GLOBAL   AxisDir=X   GridID=E   XRYZCoord=2000   LineType=Primary   LineColor=Gray8Dark   Visible=Yes   BubbleLoc=End
   CoordSys=GLOBAL   AxisDir=Y   GridID=1   XRYZCoord=0   LineType=Primary   LineColor=Gray8Dark   Visible=Yes   BubbleLoc=Start
   CoordSys=GLOBAL   AxisDir=Z   GridID=Z1   XRYZCoord=0   LineType=Primary   LineColor=Gray8Dark   Visible=Yes   BubbleLoc=End
   CoordSys=GLOBAL   AxisDir=Z   GridID=Z2   XRYZCoord=500   LineType=Primary   LineColor=Gray8Dark   Visible=Yes   BubbleLoc=End
   CoordSys=GLOBAL   AxisDir=Z   GridID=Z3   XRYZCoord=1000   LineType=Primary   LineColor=Gray8Dark   Visible=Yes   BubbleLoc=End
 
TABLE:  "GROUPS 1 - DEFINITIONS"
   GroupName=ALL   Selection=Yes   SectionCut=Yes   Steel=Yes   Concrete=Yes   Aluminum=Yes   ColdFormed=Yes   Stage=Yes   Bridge=Yes   AutoSeismic=No   AutoWind=No   SelDesSteel=No   SelDesAlum=No   SelDesCold=No   MassWeight=Yes   Color=Red
 
TABLE:  "JOINT COORDINATES"
   Joint=54   CoordSys=GLOBAL   CoordType=Cartesian   XorR=0   Y=0   Z=0   SpecialJt=No
   Joint=55   CoordSys=GLOBAL   CoordType=Cartesian   XorR=500   Y=0   Z=0   SpecialJt=No
   Joint=56   CoordSys=GLOBAL   CoordType=Cartesian   XorR=500   Y=0   Z=500   SpecialJt=No
   Joint=57   CoordSys=GLOBAL   CoordType=Cartesian   XorR=0   Y=0   Z=500   SpecialJt=No
   Joint=58   CoordSys=GLOBAL   CoordType=Cartesian   XorR=500   Y=0   Z=1000   SpecialJt=No
   Joint=59   CoordSys=GLOBAL   CoordType=Cartesian   XorR=0   Y=0   Z=1000   SpecialJt=No
   Joint=60   CoordSys=GLOBAL   CoordType=Cartesian   XorR=1000   Y=0   Z=0   SpecialJt=No
   Joint=61   CoordSys=GLOBAL   CoordType=Cartesian   XorR=1000   Y=0   Z=500   SpecialJt=No
   Joint=62   CoordSys=GLOBAL   CoordType=Cartesian   XorR=1000   Y=0   Z=1000   SpecialJt=No
   Joint=63   CoordSys=GLOBAL   CoordType=Cartesian   XorR=1500   Y=0   Z=0   SpecialJt=No
   Joint=64   CoordSys=GLOBAL   CoordType=Cartesian   XorR=1500   Y=0   Z=500   SpecialJt=No
   Joint=65   CoordSys=GLOBAL   CoordType=Cartesian   XorR=1500   Y=0   Z=1000   SpecialJt=No
   Joint=66   CoordSys=GLOBAL   CoordType=Cartesian   XorR=2000   Y=0   Z=0   SpecialJt=No
   Joint=67   CoordSys=GLOBAL   CoordType=Cartesian   XorR=2000   Y=0   Z=500   SpecialJt=No
   Joint=68   CoordSys=GLOBAL   CoordType=Cartesian   XorR=2000   Y=0   Z=1000   SpecialJt=No
 
TABLE:  "JOINT LOADS - FORCE"
   Joint=68   LoadPat=DEAD   CoordSys=GLOBAL   F1=0   F2=0   F3=-1000   M1=0   M2=0   M3=0
 
TABLE:  "JOINT PATTERN DEFINITIONS"
   Pattern=Default
 
TABLE:  "JOINT RESTRAINT ASSIGNMENTS"
   Joint=54   U1=Yes   U2=Yes   U3=Yes   R1=No   R2=No   R3=No
   Joint=57   U1=Yes   U2=Yes   U3=Yes   R1=No   R2=No   R3=No
   Joint=59   U1=Yes   U2=Yes   U3=Yes   R1=No   R2=No   R3=No
 
TABLE:  "LOAD CASE DEFINITIONS"
   Case=DEAD   Type=LinStatic   InitialCond=Zero   DesTypeOpt="Prog Det"   DesignType=DEAD   DesActOpt="Prog Det"   DesignAct=Non-Composite   AutoType=None   RunCase=Yes
   Case=MODAL   Type=LinModal   InitialCond=Zero   DesTypeOpt="Prog Det"   DesignType=OTHER   DesActOpt="Prog Det"   DesignAct=Other   AutoType=None   RunCase=No
 
TABLE:  "LOAD PATTERN DEFINITIONS"
   LoadPat=DEAD   DesignType=DEAD   SelfWtMult=1
 
TABLE:  "MASSES 1 - MASS SOURCE"
   MassFrom=Elements
 
TABLE:  "MATERIAL PROPERTIES 01 - GENERAL"
   Material=4000Psi   Type=Concrete   SymType=Isotropic   TempDepend=No   Color=Red   Notes="Customary f'c 4000 psi 2018/4/1 14:30:01"
   Material=A992Fy50   Type=Steel   SymType=Isotropic   TempDepend=No   Color=Cyan   Notes="ASTM A992 Grade 50 2018/4/1 14:30:01"
   Material=Q345   Type=Steel   SymType=Isotropic   TempDepend=No   Color=Blue   Notes="China GB Q345 added 2018/4/1 14:31:18"
 
TABLE:  "MATERIAL PROPERTIES 02 - BASIC MECHANICAL PROPERTIES"
   Material=4000Psi   UnitWeight=2.35631216161855E-05   UnitMass=2.40276960558926E-09   E1=24855.5780600518   G12=10356.4908583549   U12=.2   A1=.0000099
   Material=A992Fy50   UnitWeight=7.69728639422648E-05   UnitMass=7.84904737995993E-09   E1=199947.978795958   G12=76903.068767676   U12=.3   A1=.0000117
   Material=Q345   UnitWeight=.0000785   UnitMass=.000000008   E1=200000   G12=76923.0769230769   U12=.3   A1=.0000117
 
TABLE:  "MATERIAL PROPERTIES 03A - STEEL DATA"
   Material=A992Fy50   Fy=344.737894475789   Fu=448.159262818526   EffFy=379.211683923368   EffFu=492.975189100378   SSCurveOpt=Simple   SSHysType=Kinematic   SHard=.015   SMax=.11   SRup=.17   FinalSlope=-.1
   Material=Q345   Fy=345   Fu=510   EffFy=380   EffFu=560   SSCurveOpt=Simple   SSHysType=Kinematic   SHard=.015   SMax=.11   SRup=.17   FinalSlope=-.1
 
TABLE:  "MATERIAL PROPERTIES 03B - CONCRETE DATA"
   Material=4000Psi   Fc=27.5790315580631   LtWtConc=No   SSCurveOpt=Mander   SSHysType=Takeda   SFc=.00221914   SCap=.005   FinalSlope=-.1   FAngle=0   DAngle=0
 
TABLE:  "MATERIAL PROPERTIES 06 - DAMPING PARAMETERS"
   Material=4000Psi   ModalRatio=0   VisMass=0   VisStiff=0   HysMass=0   HysStiff=0
   Material=A992Fy50   ModalRatio=0   VisMass=0   VisStiff=0   HysMass=0   HysStiff=0
   Material=Q345   ModalRatio=0   VisMass=0   VisStiff=0   HysMass=0   HysStiff=0
 
TABLE:  "OPTIONS - COLORS - DISPLAY"
   DeviceType=Screen   Points=Blue   LinesFrame=Blue   LinesFrmDL=Blue   LinesCable=Green   LinesTendon=Green   SpringLinks=Green   Restraints=Green   Releases=Green   Axes=Cyan   Text=Black   ShadowLines=Gray8Dark   GuideLines=Gray8Dark _
        Highlight=Red   Selection=10504778   AreaFillBot=Red   AreaFillTop=16744703   AreaFillSd=Red   AreaEdge=DarkRed   SolidF1=Red   SolidF2=Blue   SolidF3=Green   SolidF4=Yellow   SolidF5=White   SolidF6=Cyan   SolidEdge=DarkRed _
        Floor=Gray4   Background=White   BGLowLeft=White   BGLowRight=White   BGUpRight=White   Darkness=.5
   DeviceType=Printer   Points=Gray8Dark   LinesFrame=Black   LinesFrmDL=Gray4   LinesCable=Black   LinesTendon=Black   SpringLinks=Gray8Dark   Restraints=Gray8Dark   Releases=Gray4   Axes=Black   Text=Black   ShadowLines=Gray4 _
        GuideLines=Gray4   Highlight=Black   Selection=Black   AreaFillBot=Gray4   AreaFillTop=Gray8Dark   AreaFillSd=Gray4   AreaEdge=Black   SolidF1=Gray1Light   SolidF2=Gray2   SolidF3=Gray3   SolidF4=Gray4   SolidF5=Gray5 _
        SolidF6=Gray6   SolidEdge=Black   Floor=Gray4   Background=White   BGLowLeft=White   BGLowRight=White   BGUpRight=White   Darkness=.5
   DeviceType="Color Printer"   Points=Blue   LinesFrame=Blue   LinesFrmDL=Blue   LinesCable=Green   LinesTendon=Green   SpringLinks=Green   Restraints=Green   Releases=Green   Axes=Cyan   Text=Black   ShadowLines=Gray8Dark _
        GuideLines=Gray8Dark   Highlight=Red   Selection=10504778   AreaFillBot=Red   AreaFillTop=16744703   AreaFillSd=Red   AreaEdge=DarkRed   SolidF1=Red   SolidF2=Blue   SolidF3=Green   SolidF4=Yellow   SolidF5=White   SolidF6=Cyan _
        SolidEdge=DarkRed   Floor=Gray4   Background=White   BGLowLeft=White   BGLowRight=White   BGUpRight=White   Darkness=.5
 
TABLE:  "OPTIONS - COLORS - OUTPUT"
   DeviceType=Screen   Contour1=13107400   Contour2=6553828   Contour3=Red   Contour4=16639   Contour5=Orange   Contour6=43775   Contour7=54527   Contour8=Yellow   Contour9=65408   Contour10=Green   Contour11=8453888   Contour12=Cyan _
        Contour13=16755200   Contour14=16733440   Contour15=Blue   Transpare=.5   Ratio1=Cyan   Ratio2=Green   Ratio3=Yellow   Ratio4=Orange   Ratio5=Red   RatioNotD=Gray4   RatioNotC=Red   RatioVal1=.5   RatioVal2=.7   RatioVal3=.9 _
        RatioVal4=1   DFillPos=Blue   DFillNeg=Red   DFillRPos=Green   DFillRNeg=Green
   DeviceType=Printer   Contour1=Black   Contour2=3158064   Contour3=4210752   Contour4=5263440   Contour5=6316128   Contour6=7368816   Contour7=Gray8Dark   Contour8=Gray7   Contour9=Gray6   Contour10=Gray5   Contour11=Gray4 _
        Contour12=Gray3   Contour13=Gray2   Contour14=Gray1Light   Contour15=White   Transpare=0   Ratio1=Gray2   Ratio2=Gray4   Ratio3=Gray8Dark   Ratio4=4210752   Ratio5=Black   RatioNotD=Gray4   RatioNotC=Black   RatioVal1=.5 _
        RatioVal2=.7   RatioVal3=.9   RatioVal4=1   DFillPos=Gray8Dark   DFillNeg=Gray8Dark   DFillRPos=4210752   DFillRNeg=4210752
   DeviceType="Color Printer"   Contour1=13107400   Contour2=6553828   Contour3=Red   Contour4=16639   Contour5=Orange   Contour6=43775   Contour7=54527   Contour8=Yellow   Contour9=65408   Contour10=Green   Contour11=8453888 _
        Contour12=Cyan   Contour13=16755200   Contour14=16733440   Contour15=Blue   Transpare=0   Ratio1=Cyan   Ratio2=Green   Ratio3=Yellow   Ratio4=Orange   Ratio5=Red   RatioNotD=Gray4   RatioNotC=Red   RatioVal1=.5   RatioVal2=.7 _
        RatioVal3=.9   RatioVal4=1   DFillPos=Blue   DFillNeg=Red   DFillRPos=Green   DFillRNeg=Green
 
TABLE:  "PREFERENCES - ALUMINUM DESIGN - AA-ASD 2000"
   THDesign=Envelopes   FrameType="Moment Frame"   SRatioLimit=1   MaxIter=1   LatFact=1.33333333333333   UseLatFact=No   Bridge=No
 
TABLE:  "PREFERENCES - COLD FORMED DESIGN - AISI-ASD96"
   THDesign=Envelopes   FrameType="Braced Frame"   SRatioLimit=1   MaxIter=1   OmegaBS=1.67   OmegaBUS=1.67   OmegaBLTB=1.67   OmegaVS=1.67   OmegaVNS=1.5   OmegaT=1.67   OmegaC=1.8
 
TABLE:  "PREFERENCES - CONCRETE DESIGN - ACI 318-05/IBC2003"
   THDesign=Envelopes   NumCurves=24   NumPoints=11   MinEccen=Yes   PatLLF=.75   UFLimit=.95   SeisCat=D   PhiT=.9   PhiCTied=.65   PhiCSpiral=.7   PhiV=.75   PhiVSeismic=.6   PhiVJoint=.85
 
TABLE:  "PREFERENCES - DIMENSIONAL"
   MergeTol=1   FineGrid=250   Nudge=250   SelectTol=3   SnapTol=12   SLineThick=2   PLineThick=4   MaxFont=8   MinFont=3   AutoZoom=10   ShrinkFact=70   TextFileLen=240
 
TABLE:  "PREFERENCES - STEEL DESIGN - AISC360-05-IBC2006"
   THDesign=Envelopes   FrameType=SMF   PatLLF=.75   SRatioLimit=.95   MaxIter=1   SDC=D   SeisCode=Yes   SeisLoad=Yes   ImpFactor=1   SystemRho=1   SystemSds=.5   SystemR=8   SystemCd=5.5   Omega0=3   Provision=LRFD _
        AMethod="Direct Analysis"   SOMethod="General 2nd Order"   SRMethod="Tau-b Fixed"   NLCoeff=.002   PhiB=.9   PhiC=.9   PhiTY=.9   PhiTF=.75   PhiV=.9   PhiVRolledI=1   PhiVT=.9   PlugWeld=Yes   HSSWelding=ERW   HSSReduceT=No _
        CheckDefl=No   DLRat=120   SDLAndLLRat=120   LLRat=360   TotalRat=240   NetRat=240
 
TABLE:  "PROGRAM CONTROL"
   ProgramName=SAP2000   Version=15.1.0   CurrUnits="N, mm, C"   SteelCode=AISC360-05/IBC2006   ConcCode="ACI 318-05/IBC2003"   AlumCode="AA-ASD 2000"   ColdCode=AISI-ASD96   BridgeCode="AASHTO LRFD 2007"   RegenHinge=Yes
 
TABLE:  "PROJECT INFORMATION"
   Item="Company Name"
   Item="Client Name"
   Item="Project Name"
   Item="Project Number"
   Item="Model Name"
   Item="Model Description"
   Item="Revision Number"
   Item="Frame Type"
   Item=Engineer
   Item=Checker
   Item=Supervisor
   Item="Issue Code"
   Item="Design Code"
 
TABLE:  "REBAR SIZES"
   RebarID=#2   Area=32.258   Diameter=6.35
   RebarID=#3   Area=70.9675996154547   Diameter=9.525
   RebarID=#4   Area=129.032001922727   Diameter=12.7
   RebarID=#5   Area=199.999601538181   Diameter=15.875
   RebarID=#6   Area=283.870398461819   Diameter=19.05
   RebarID=#7   Area=387.096015381813   Diameter=22.225
   RebarID=#8   Area=509.676413843632   Diameter=25.4
   RebarID=#9   Area=645.16   Diameter=28.6512005329132
   RebarID=#10   Area=819.35318769455   Diameter=32.2579995155334
   RebarID=#11   Area=1006.44956308365   Diameter=35.8139991521835
   RebarID=#14   Area=1451.61   Diameter=43.0021989583969
   RebarID=#18   Area=2580.64   Diameter=57.3277992248535
   RebarID=10M   Area=100.000004162606   Diameter=11.3000003604438
   RebarID=15M   Area=200.000008325212   Diameter=16.0000002402959
   RebarID=20M   Area=300.000012487818   Diameter=19.5000002928606
   RebarID=25M   Area=500.000020813031   Diameter=25.2000011414055
   RebarID=30M   Area=700.000029138243   Diameter=29.9000000675832
   RebarID=35M   Area=1000.00004162606   Diameter=35.7000012990997
   RebarID=45M   Area=1500.00006243909   Diameter=43.7000014192476
   RebarID=55M   Area=2500.00010406515   Diameter=56.400002372922
   RebarID=6d   Area=28.3000004150781   Diameter=6.00000009011096
   RebarID=8d   Area=50.3000013308514   Diameter=8.00000012014795
   RebarID=10d   Area=78.5000032676458   Diameter=10.0000001501849
   RebarID=12d   Area=113.000004703745   Diameter=12.0000001802219
   RebarID=14d   Area=154.000006410413   Diameter=14.0000002102589
   RebarID=16d   Area=201.000008366838   Diameter=16.0000002402959
   RebarID=20d   Area=314.000013070583   Diameter=20.0000003003699
   RebarID=25d   Area=491.000020438396   Diameter=25.0000003754623
   RebarID=26d   Area=531.000022103439   Diameter=26.0000003904808
   RebarID=28d   Area=616.000025641654   Diameter=28.0000004205178
   RebarID=N12   Area=113.000004703745   Diameter=12.0000001802219
   RebarID=N16   Area=201.000008366838   Diameter=16.0000002402959
   RebarID=N20   Area=314.000013070583   Diameter=20.0000003003699
   RebarID=N24   Area=452.00001881498   Diameter=24.0000003604438
   RebarID=N28   Area=616.000025641654   Diameter=28.0000004205178
   RebarID=N32   Area=804.000033467353   Diameter=32.0000004805918
   RebarID=N36   Area=1020.00004245858   Diameter=36.0000005406658
 
END TABLE DATA
